    17
Mode #0, f = 297.1  cm^-1.
Cu      1.29563      1.29563      8.00000      0.00000      0.00000      0.00000 
Cu      3.88689      1.29563      8.00000      0.00000      0.00000      0.00000 
Cu      1.29563      3.88689      8.00000      0.00000      0.00000      0.00000 
Cu      3.88689      3.88689      8.00000      0.00000      0.00000      0.00000 
Cu      0.00000      0.00000      9.83230      0.00000      0.00000      0.00000 
Cu      2.59126      0.00000      9.83230      0.00000      0.00000      0.00000 
Cu      0.00000      2.59126      9.83230      0.00000      0.00000      0.00000 
Cu      2.59126      2.59126      9.83230      0.00000      0.00000      0.00000 
Cu      1.29537      1.29578     11.57729      0.00000      0.00000      0.00000 
Cu      3.88737      1.29717     11.65180      0.00000      0.00000      0.00000 
Cu      1.29509      3.88755     11.65308      0.00000      0.00000      0.00000 
Cu      3.88624      3.88866     11.73545      0.00000      0.00000      0.00000 
Cu     -0.01633     -0.01603     13.49380      0.00000      0.00000      0.00000 
Cu      2.60971     -0.01584     13.49343      0.00000      0.00000      0.00000 
Cu     -0.01822      2.60830     13.49522      0.00000      0.00000      0.00000 
Cu      2.60785      2.60863     13.49428      0.00000      0.00000      0.00000 
 O      1.29624      1.29655     14.26716      0.00252      0.00458      0.24995 
    17
Mode #1, f = 317.8  cm^-1.
Cu      1.29563      1.29563      8.00000      0.00000      0.00000      0.00000 
Cu      3.88689      1.29563      8.00000      0.00000      0.00000      0.00000 
Cu      1.29563      3.88689      8.00000      0.00000      0.00000      0.00000 
Cu      3.88689      3.88689      8.00000      0.00000      0.00000      0.00000 
Cu      0.00000      0.00000      9.83230      0.00000      0.00000      0.00000 
Cu      2.59126      0.00000      9.83230      0.00000      0.00000      0.00000 
Cu      0.00000      2.59126      9.83230      0.00000      0.00000      0.00000 
Cu      2.59126      2.59126      9.83230      0.00000      0.00000      0.00000 
Cu      1.29537      1.29578     11.57729      0.00000      0.00000      0.00000 
Cu      3.88737      1.29717     11.65180      0.00000      0.00000      0.00000 
Cu      1.29509      3.88755     11.65308      0.00000      0.00000      0.00000 
Cu      3.88624      3.88866     11.73545      0.00000      0.00000      0.00000 
Cu     -0.01633     -0.01603     13.49380      0.00000      0.00000      0.00000 
Cu      2.60971     -0.01584     13.49343      0.00000      0.00000      0.00000 
Cu     -0.01822      2.60830     13.49522      0.00000      0.00000      0.00000 
Cu      2.60785      2.60863     13.49428      0.00000      0.00000      0.00000 
 O      1.29624      1.29655     14.26716     -0.18049      0.17299     -0.00135 
    17
Mode #2, f = 319.1  cm^-1.
Cu      1.29563      1.29563      8.00000      0.00000      0.00000      0.00000 
Cu      3.88689      1.29563      8.00000      0.00000      0.00000      0.00000 
Cu      1.29563      3.88689      8.00000      0.00000      0.00000      0.00000 
Cu      3.88689      3.88689      8.00000      0.00000      0.00000      0.00000 
Cu      0.00000      0.00000      9.83230      0.00000      0.00000      0.00000 
Cu      2.59126      0.00000      9.83230      0.00000      0.00000      0.00000 
Cu      0.00000      2.59126      9.83230      0.00000      0.00000      0.00000 
Cu      2.59126      2.59126      9.83230      0.00000      0.00000      0.00000 
Cu      1.29537      1.29578     11.57729      0.00000      0.00000      0.00000 
Cu      3.88737      1.29717     11.65180      0.00000      0.00000      0.00000 
Cu      1.29509      3.88755     11.65308      0.00000      0.00000      0.00000 
Cu      3.88624      3.88866     11.73545      0.00000      0.00000      0.00000 
Cu     -0.01633     -0.01603     13.49380      0.00000      0.00000      0.00000 
Cu      2.60971     -0.01584     13.49343      0.00000      0.00000      0.00000 
Cu     -0.01822      2.60830     13.49522      0.00000      0.00000      0.00000 
Cu      2.60785      2.60863     13.49428      0.00000      0.00000      0.00000 
 O      1.29624      1.29655     14.26716     -0.17298     -0.18043      0.00505 
