     2
Mode #0, f = 90.8i cm^-1.
 H      5.20001      5.00000      4.78849      0.00001      0.69793     -0.00000 
 H      5.19999      5.00000      4.05285     -0.00001     -0.71061     -0.00000 
     2
Mode #1, f = 21.5i cm^-1.
 H      5.20001      5.00000      4.78849      0.27087     -0.00820     -0.64658 
 H      5.19999      5.00000      4.05285     -0.28712     -0.00804     -0.64657 
     2
Mode #2, f = 0.3i cm^-1.
 H      5.20001      5.00000      4.78849     -0.70425      0.00188      0.00886 
 H      5.19999      5.00000      4.05285     -0.70422      0.00184      0.00877 
     2
Mode #3, f = 0.8  cm^-1.
 H      5.20001      5.00000      4.78849     -0.00174     -0.71055      0.00887 
 H      5.19999      5.00000      4.05285     -0.00176     -0.69787      0.00887 
     2
Mode #4, f = 49.9  cm^-1.
 H      5.20001      5.00000      4.78849      0.65017      0.00353      0.27891 
 H      5.19999      5.00000      4.05285     -0.64319      0.00349      0.27899 
     2
Mode #5, f = 4455.2  cm^-1.
 H      5.20001      5.00000      4.78849      0.00008     -0.00000      0.70431 
 H      5.19999      5.00000      4.05285      0.00001     -0.00000     -0.70428 
